180
Lattice="3.18 0.0 0.0 -31.8 55.0792156806903 0.0 0.0 -0.0 29.57" Properties=species:S:1:pos:R:3 pbc="T T F"
Mo      10.12225438       0.00000000      -3.19000000
S       11.95822824       0.00000000      -1.59500000
S       10.90431762       1.72707424      -4.78500000
Mo      10.12225438       0.00000000      -0.00000000
S       11.95822824       0.00000000       1.59500000
S       10.90431762       1.72707424      -1.59500000
Mo      10.12225438       0.00000000       3.19000000
S       11.95822824       0.00000000       4.78500000
S       10.90431762       1.72707424       1.59500000
Mo       9.62683599       3.12794863      -3.19000000
S       11.37295089       3.69529575      -1.59500000
S        9.83692703       5.01216467      -4.78500000
Mo       9.62683599       3.12794863      -0.00000000
S       11.37295089       3.69529575       1.59500000
S        9.83692703       5.01216467      -1.59500000
Mo       9.62683599       3.12794863       3.19000000
S       11.37295089       3.69529575       4.78500000
S        9.83692703       5.01216467       1.59500000
Mo       8.18907582       5.94971184      -3.19000000
S        9.67440987       7.02887020      -1.59500000
S        7.80662950       7.80662950      -4.78500000
Mo       8.18907582       5.94971184      -0.00000000
S        9.67440987       7.02887020       1.59500000
S        7.80662950       7.80662950      -1.59500000
Mo       8.18907582       5.94971184       3.19000000
S        9.67440987       7.02887020       4.78500000
S        7.80662950       7.80662950       1.59500000
Mo       5.94971184       8.18907582      -3.19000000
S        7.02887020       9.67440987      -1.59500000
S        5.01216467       9.83692703      -4.78500000
Mo       5.94971184       8.18907582      -0.00000000
S        7.02887020       9.67440987       1.59500000
S        5.01216467       9.83692703      -1.59500000
Mo       5.94971184       8.18907582       3.19000000
S        7.02887020       9.67440987       4.78500000
S        5.01216467       9.83692703       1.59500000
Mo       3.12794863       9.62683599      -3.19000000
S        3.69529575      11.37295089      -1.59500000
S        1.72707424      10.90431762      -4.78500000
Mo       3.12794863       9.62683599      -0.00000000
S        3.69529575      11.37295089       1.59500000
S        1.72707424      10.90431762      -1.59500000
Mo       3.12794863       9.62683599       3.19000000
S        3.69529575      11.37295089       4.78500000
S        1.72707424      10.90431762       1.59500000
Mo       0.00000000      10.12225438      -3.19000000
S        0.00000000      11.95822824      -1.59500000
S       -1.72707424      10.90431762      -4.78500000
Mo       0.00000000      10.12225438      -0.00000000
S        0.00000000      11.95822824       1.59500000
S       -1.72707424      10.90431762      -1.59500000
Mo       0.00000000      10.12225438       3.19000000
S        0.00000000      11.95822824       4.78500000
S       -1.72707424      10.90431762       1.59500000
Mo      -3.12794863       9.62683599      -3.19000000
S       -3.69529575      11.37295089      -1.59500000
S       -5.01216467       9.83692703      -4.78500000
Mo      -3.12794863       9.62683599      -0.00000000
S       -3.69529575      11.37295089       1.59500000
S       -5.01216467       9.83692703      -1.59500000
Mo      -3.12794863       9.62683599       3.19000000
S       -3.69529575      11.37295089       4.78500000
S       -5.01216467       9.83692703       1.59500000
Mo      -5.94971184       8.18907582      -3.19000000
S       -7.02887020       9.67440987      -1.59500000
S       -7.80662950       7.80662950      -4.78500000
Mo      -5.94971184       8.18907582      -0.00000000
S       -7.02887020       9.67440987       1.59500000
S       -7.80662950       7.80662950      -1.59500000
Mo      -5.94971184       8.18907582       3.19000000
S       -7.02887020       9.67440987       4.78500000
S       -7.80662950       7.80662950       1.59500000
Mo      -8.18907582       5.94971184      -3.19000000
S       -9.67440987       7.02887020      -1.59500000
S       -9.83692703       5.01216467      -4.78500000
Mo      -8.18907582       5.94971184      -0.00000000
S       -9.67440987       7.02887020       1.59500000
S       -9.83692703       5.01216467      -1.59500000
Mo      -8.18907582       5.94971184       3.19000000
S       -9.67440987       7.02887020       4.78500000
S       -9.83692703       5.01216467       1.59500000
Mo      -9.62683599       3.12794863      -3.19000000
S      -11.37295089       3.69529575      -1.59500000
S      -10.90431762       1.72707424      -4.78500000
Mo      -9.62683599       3.12794863      -0.00000000
S      -11.37295089       3.69529575       1.59500000
S      -10.90431762       1.72707424      -1.59500000
Mo      -9.62683599       3.12794863       3.19000000
S      -11.37295089       3.69529575       4.78500000
S      -10.90431762       1.72707424       1.59500000
Mo     -10.12225438       0.00000000      -3.19000000
S      -11.95822824       0.00000000      -1.59500000
S      -10.90431762      -1.72707424      -4.78500000
Mo     -10.12225438       0.00000000      -0.00000000
S      -11.95822824       0.00000000       1.59500000
S      -10.90431762      -1.72707424      -1.59500000
Mo     -10.12225438       0.00000000       3.19000000
S      -11.95822824       0.00000000       4.78500000
S      -10.90431762      -1.72707424       1.59500000
Mo      -9.62683599      -3.12794863      -3.19000000
S      -11.37295089      -3.69529575      -1.59500000
S       -9.83692703      -5.01216467      -4.78500000
Mo      -9.62683599      -3.12794863      -0.00000000
S      -11.37295089      -3.69529575       1.59500000
S       -9.83692703      -5.01216467      -1.59500000
Mo      -9.62683599      -3.12794863       3.19000000
S      -11.37295089      -3.69529575       4.78500000
S       -9.83692703      -5.01216467       1.59500000
Mo      -8.18907582      -5.94971184      -3.19000000
S       -9.67440987      -7.02887020      -1.59500000
S       -7.80662950      -7.80662950      -4.78500000
Mo      -8.18907582      -5.94971184      -0.00000000
S       -9.67440987      -7.02887020       1.59500000
S       -7.80662950      -7.80662950      -1.59500000
Mo      -8.18907582      -5.94971184       3.19000000
S       -9.67440987      -7.02887020       4.78500000
S       -7.80662950      -7.80662950       1.59500000
Mo      -5.94971184      -8.18907582      -3.19000000
S       -7.02887020      -9.67440987      -1.59500000
S       -5.01216467      -9.83692703      -4.78500000
Mo      -5.94971184      -8.18907582      -0.00000000
S       -7.02887020      -9.67440987       1.59500000
S       -5.01216467      -9.83692703      -1.59500000
Mo      -5.94971184      -8.18907582       3.19000000
S       -7.02887020      -9.67440987       4.78500000
S       -5.01216467      -9.83692703       1.59500000
Mo      -3.12794863      -9.62683599      -3.19000000
S       -3.69529575     -11.37295089      -1.59500000
S       -1.72707424     -10.90431762      -4.78500000
Mo      -3.12794863      -9.62683599      -0.00000000
S       -3.69529575     -11.37295089       1.59500000
S       -1.72707424     -10.90431762      -1.59500000
Mo      -3.12794863      -9.62683599       3.19000000
S       -3.69529575     -11.37295089       4.78500000
S       -1.72707424     -10.90431762       1.59500000
Mo      -0.00000000     -10.12225438      -3.19000000
S       -0.00000000     -11.95822824      -1.59500000
S        1.72707424     -10.90431762      -4.78500000
Mo      -0.00000000     -10.12225438      -0.00000000
S       -0.00000000     -11.95822824       1.59500000
S        1.72707424     -10.90431762      -1.59500000
Mo      -0.00000000     -10.12225438       3.19000000
S       -0.00000000     -11.95822824       4.78500000
S        1.72707424     -10.90431762       1.59500000
Mo       3.12794863      -9.62683599      -3.19000000
S        3.69529575     -11.37295089      -1.59500000
S        5.01216467      -9.83692703      -4.78500000
Mo       3.12794863      -9.62683599      -0.00000000
S        3.69529575     -11.37295089       1.59500000
S        5.01216467      -9.83692703      -1.59500000
Mo       3.12794863      -9.62683599       3.19000000
S        3.69529575     -11.37295089       4.78500000
S        5.01216467      -9.83692703       1.59500000
Mo       5.94971184      -8.18907582      -3.19000000
S        7.02887020      -9.67440987      -1.59500000
S        7.80662950      -7.80662950      -4.78500000
Mo       5.94971184      -8.18907582      -0.00000000
S        7.02887020      -9.67440987       1.59500000
S        7.80662950      -7.80662950      -1.59500000
Mo       5.94971184      -8.18907582       3.19000000
S        7.02887020      -9.67440987       4.78500000
S        7.80662950      -7.80662950       1.59500000
Mo       8.18907582      -5.94971184      -3.19000000
S        9.67440987      -7.02887020      -1.59500000
S        9.83692703      -5.01216467      -4.78500000
Mo       8.18907582      -5.94971184      -0.00000000
S        9.67440987      -7.02887020       1.59500000
S        9.83692703      -5.01216467      -1.59500000
Mo       8.18907582      -5.94971184       3.19000000
S        9.67440987      -7.02887020       4.78500000
S        9.83692703      -5.01216467       1.59500000
Mo       9.62683599      -3.12794863      -3.19000000
S       11.37295089      -3.69529575      -1.59500000
S       10.90431762      -1.72707424      -4.78500000
Mo       9.62683599      -3.12794863      -0.00000000
S       11.37295089      -3.69529575       1.59500000
S       10.90431762      -1.72707424      -1.59500000
Mo       9.62683599      -3.12794863       3.19000000
S       11.37295089      -3.69529575       4.78500000
S       10.90431762      -1.72707424       1.59500000
