# generated using pymatgen
data_Na2S5
_symmetry_space_group_name_H-M   Pnma
_cell_length_a   7.64736737
_cell_length_b   14.51053462
_cell_length_c   5.79066164
_cell_angle_alpha   90.00000000
_cell_angle_beta   90.00000000
_cell_angle_gamma   90.00000000
_symmetry_Int_Tables_number   62
_chemical_formula_structural   Na2S5
_chemical_formula_sum   'Na8 S20'
_cell_volume   642.57460262
_cell_formula_units_Z   4
loop_
 _symmetry_equiv_pos_site_id
 _symmetry_equiv_pos_as_xyz
  1  'x, y, z'
  2  '-x, -y, -z'
  3  '-x+1/2, -y, z+1/2'
  4  'x+1/2, y, -z+1/2'
  5  'x+1/2, -y+1/2, -z+1/2'
  6  '-x+1/2, y+1/2, z+1/2'
  7  '-x, y+1/2, -z'
  8  'x, -y+1/2, z'
loop_
 _atom_type_symbol
 _atom_type_oxidation_number
  Na+  1.0
  S0.40-  -0.4
loop_
 _atom_site_type_symbol
 _atom_site_label
 _atom_site_symmetry_multiplicity
 _atom_site_fract_x
 _atom_site_fract_y
 _atom_site_fract_z
 _atom_site_occupancy
  Na+  Na0  4  0.00000000  0.00000000  0.00000000  1
  Na+  Na1  4  0.05230847  0.25000000  0.79830501  1
  S0.40-  S2  8  0.04272686  0.63411589  0.61011277  1
  S0.40-  S3  8  0.20326754  0.60267239  0.33580923  1
  S0.40-  S4  4  0.14209729  0.75000000  0.77135967  1
