# generated using pymatgen
data_Li3PS4
_symmetry_space_group_name_H-M   'P 1'
_cell_length_a   6.21318401
_cell_length_b   8.13245436
_cell_length_c   13.18362387
_cell_angle_alpha   90.00000000
_cell_angle_beta   90.00000000
_cell_angle_gamma   90.00000000
_symmetry_Int_Tables_number   1
_chemical_formula_structural   Li3PS4
_chemical_formula_sum   'Li12 P4 S16'
_cell_volume   666.14788694
_cell_formula_units_Z   4
loop_
 _symmetry_equiv_pos_site_id
 _symmetry_equiv_pos_as_xyz
  1  'x, y, z'
loop_
 _atom_site_type_symbol
 _atom_site_label
 _atom_site_symmetry_multiplicity
 _atom_site_fract_x
 _atom_site_fract_y
 _atom_site_fract_z
 _atom_site_occupancy
  Li  Li1  1  0.610959  0.968280  0.332097  1.0
  Li  Li2  1  0.389041  0.031720  0.667903  1.0
  Li  Li3  1  0.110959  0.031720  0.167903  1.0
  Li  Li4  1  0.889041  0.968280  0.832097  1.0
  Li  Li5  1  0.389041  0.468280  0.667903  1.0
  Li  Li6  1  0.610959  0.531720  0.332097  1.0
  Li  Li7  1  0.889041  0.531720  0.832097  1.0
  Li  Li8  1  0.110959  0.468280  0.167903  1.0
  Li  Li9  1  0.500000  0.000000  0.000000  1.0
  Li  Li10  1  0.000000  0.000000  0.500000  1.0
  Li  Li11  1  0.500000  0.500000  0.000000  1.0
  Li  Li12  1  0.000000  0.500000  0.500000  1.0
  P  P13  1  0.846200  0.750000  0.089243  1.0
  P  P14  1  0.153800  0.250000  0.910757  1.0
  P  P15  1  0.346200  0.250000  0.410757  1.0
  P  P16  1  0.653800  0.750000  0.589243  1.0
  S  S17  1  0.174162  0.750000  0.101364  1.0
  S  S18  1  0.825838  0.250000  0.898636  1.0
  S  S19  1  0.674162  0.250000  0.398636  1.0
  S  S20  1  0.325838  0.750000  0.601364  1.0
  S  S21  1  0.727193  0.750000  0.940527  1.0
  S  S22  1  0.272807  0.250000  0.059473  1.0
  S  S23  1  0.227193  0.250000  0.559473  1.0
  S  S24  1  0.772807  0.750000  0.440527  1.0
  S  S25  1  0.726748  0.962398  0.152438  1.0
  S  S26  1  0.273252  0.037602  0.847562  1.0
  S  S27  1  0.226748  0.037602  0.347562  1.0
  S  S28  1  0.773252  0.962398  0.652438  1.0
  S  S29  1  0.273252  0.462398  0.847562  1.0
  S  S30  1  0.726748  0.537602  0.152438  1.0
  S  S31  1  0.773252  0.537602  0.652438  1.0
  S  S32  1  0.226748  0.462398  0.347562  1.0
